Circuit: * F:\ELECTRONICS\LT_SPICE\IMPORT LIBRARIES\Draft1.asc

Limiting fall time of source i1 to 0.1
WARNING: Node U2:_U0:Y_INT3 is floating.
WARNING: Node U2:N38 is floating.

WARNING: Less than two connections to node NC_02.  This node is used by Q:U1:1.
WARNING: Less than two connections to node NC_01.  This node is used by Q:U1:2.
Direct Newton iteration for .op point succeeded.

Date: Tue Mar 30 20:28:51 2021
Total elapsed time: 0.188 seconds.

tnom = 27
temp = 27
method = modified trap
totiter = 2169
traniter = 2150
tranpoints = 1063
accept = 1059
rejected = 4
matrix size = 87
fillins = 117
solver = Normal
Thread vector: 13.7/9.2[8] 3.8/2.1[8] 1.7/2.3[1] 0.6/2.0[1]  2592/500
Matrix Compiler1: 18.78 KB object code size  6.1/3.7/[1.7]
Matrix Compiler2: 11.60 KB object code size  1.5/2.2/[0.7]

