Stray ".ends" card: .ends zvp3306a
Circuit: * C:\Users\_\Desktop\pianoo\Draft2.asc

Warning: Multiple definitions of model "aons66402" Type: Vdmos1
WARNING: Node N002 is floating.

Direct Newton iteration for .op point succeeded.

Date: Tue Apr 06 22:25:20 2021
Total elapsed time: 0.082 seconds.

tnom = 27
temp = 27
method = modified trap
totiter = 2187
traniter = 2164
tranpoints = 1083
accept = 1055
rejected = 28
matrix size = 9
fillins = 0
solver = Normal
Matrix Compiler1: 628 bytes object code size  0.1/0.1/[0.1]
Matrix Compiler2: off  [0.1]/0.1/0.1

