Circuit: * C:\Users\_\Desktop\pianoo\NMOS IV CHARACTERISTICS\Draft2.asc

Warning: Multiple definitions of model "aons66402" Type: Vdmos1
Vgs: Missing value, assumed 0V @ DC

Date: Wed Apr 07 18:32:31 2021
Total elapsed time: 0.074 seconds.

tnom = 27
temp = 27
method = trap
totiter = 104
traniter = 0
tranpoints = 0
accept = 0
rejected = 0
matrix size = 8
fillins = 0
solver = Normal
Matrix Compiler1: 326 bytes object code size  0.1/0.0/[0.0]
Matrix Compiler2: off  [0.1]/0.1/0.1

