Circuit: * D:\VLSI\NMOS PMOS DIODE REGISTER\cascaded pmos\cascaded pmos.asc

Warning: Multiple definitions of model "aons66402" Type: Vdmos1
Instance "m2": Length shorter than recommended for a level 1 MOSFET.
Instance "m1": Length shorter than recommended for a level 1 MOSFET.
Direct Newton iteration for .op point succeeded.

Date: Tue Apr 20 22:38:56 2021
Total elapsed time: 0.524 seconds.

tnom = 27
temp = 27
method = modified trap
totiter = 81036
traniter = 81030
tranpoints = 40016
accept = 24018
rejected = 15998
matrix size = 8
fillins = 0
solver = Normal
Matrix Compiler1: 210 bytes object code size  0.1/0.0/[0.0]
Matrix Compiler2: off  [0.1]/0.1/0.1

