Circuit: * D:\VLSI\NMOS C-S LOAD PMOS CS AMP\PMOS-NMOS.asc

Warning: Multiple definitions of model "aons66402" Type: Vdmos1
Instance "m2": Length shorter than recommended for a level 1 MOSFET.
Instance "m1": Length shorter than recommended for a level 1 MOSFET.
Direct Newton iteration for .op point succeeded.

Date: Wed Apr 28 00:13:38 2021
Total elapsed time: 0.085 seconds.

tnom = 27
temp = 27
method = modified trap
totiter = 836
traniter = 830
tranpoints = 416
accept = 258
rejected = 158
matrix size = 7
fillins = 0
solver = Normal
Matrix Compiler1: 196 bytes object code size  0.1/0.0/[0.0]
Matrix Compiler2: 461 bytes object code size  0.1/0.1/[0.0]

