Circuit: * F:\ELECTRONICS\LT_SPICE\IMPORT LIBRARIES\Draft2.asc

Warning: Multiple definitions of model "aons66402" Type: Vdmos1
Direct Newton iteration for .op point succeeded.

Date: Tue Apr 06 22:57:36 2021
Total elapsed time: 0.098 seconds.

tnom = 27
temp = 27
method = modified trap
totiter = 3511
traniter = 3501
tranpoints = 1751
accept = 1360
rejected = 391
matrix size = 12
fillins = 5
solver = Normal
Matrix Compiler1: 838 bytes object code size  0.2/0.1/[0.1]
Matrix Compiler2: 996 bytes object code size  0.1/0.1/[0.1]

