Circuit: * D:\VLSI\NMOS PMOS DIODE REGISTER\PMOS-PMOS\pmos-pmos.asc

Warning: Multiple definitions of model "aons66402" Type: Vdmos1
Instance "m3": Length shorter than recommended for a level 1 MOSFET.
Instance "m2": Length shorter than recommended for a level 1 MOSFET.
Instance "m1": Length shorter than recommended for a level 1 MOSFET.

Date: Tue Apr 20 23:47:32 2021
Total elapsed time: 0.149 seconds.

tnom = 27
temp = 27
method = trap
totiter = 55
traniter = 0
tranpoints = 0
accept = 0
rejected = 0
matrix size = 10
fillins = 0
solver = Normal
Matrix Compiler1: 238 bytes object code size
Matrix Compiler2: 598 bytes object code size
