Circuit: * D:\VLSI\PMOS C-S LOAD NMOS CS AMP\TRIODE_or_LINEAR\NMOS-PMOS.asc

Warning: Multiple definitions of model "aons66402" Type: Vdmos1
Instance "m2": Length shorter than recommended for a level 1 MOSFET.
Instance "m1": Length shorter than recommended for a level 1 MOSFET.
Direct Newton iteration for .op point succeeded.

Date: Tue Apr 27 22:12:44 2021
Total elapsed time: 0.145 seconds.

tnom = 27
temp = 27
method = modified trap
totiter = 856
traniter = 830
tranpoints = 416
accept = 258
rejected = 158
matrix size = 7
fillins = 0
solver = Normal
Matrix Compiler1: 232 bytes object code size  0.0/0.0/[0.0]
Matrix Compiler2: off  [0.0]/0.1/0.1

