Circuit: * D:\VLSI\NMOS PMOS DIODE REGISTER\NMOS-PMOS.asc

Warning: Multiple definitions of model "aons66402" Type: Vdmos1
Instance "m2": Length shorter than recommended for a level 1 MOSFET.
Instance "m1": Length shorter than recommended for a level 1 MOSFET.

Date: Tue Apr 20 23:31:52 2021
Total elapsed time: 0.071 seconds.

tnom = 27
temp = 27
method = trap
totiter = 218
traniter = 0
tranpoints = 0
accept = 0
rejected = 0
matrix size = 5
fillins = 0
solver = Normal
Matrix Compiler1: 132 bytes object code size  0.1/0.1/[0.1]
Matrix Compiler2: 295 bytes object code size  0.2/0.2/[0.1]

