Circuit: * C:\Users\_\Documents\LTspiceXVII\lib\sym\AutoGenerated\Draft1.asc

WARNING: Less than two connections to node NC_01.  This node is used by V1.
WARNING: Less than two connections to node NC_02.  This node is used by V2.
WARNING: Less than two connections to node NC_03.  This node is used by V3.
WARNING: Less than two connections to node NC_04.  This node is used by V4.
WARNING: Less than two connections to node NC_05.  This node is used by V5.
WARNING: Less than two connections to node NC_06.  This node is used by V6.
WARNING: Less than two connections to node NC_07.  This node is used by V9.
WARNING: Less than two connections to node NC_08.  This node is used by V7.
WARNING: Less than two connections to node NC_09.  This node is used by V8.
WARNING: Less than two connections to node NC_10.  This node is used by V10.
WARNING: Less than two connections to node NC_11.  This node is used by V11.
WARNING: Less than two connections to node NC_12.  This node is used by V12.
WARNING: Less than two connections to node NC_13.  This node is used by V13.
WARNING: Less than two connections to node NC_14.  This node is used by V14.
WARNING: Less than two connections to node NC_15.  This node is used by V15.
WARNING: Less than two connections to node NC_16.  This node is used by V16.
WARNING: Less than two connections to node NC_17.  This node is used by V17.
WARNING: Less than two connections to node NC_18.  This node is used by V18.
WARNING: Less than two connections to node NC_19.  This node is used by V19.
WARNING: Less than two connections to node NC_20.  This node is used by V20.
Direct Newton iteration for .op point succeeded.

Date: Wed Mar 31 18:34:03 2021
Total elapsed time: 16.494 seconds.

tnom = 27
temp = 27
method = modified trap
totiter = 3882727
traniter = 3882724
tranpoints = 1941363
accept = 1940851
rejected = 512
matrix size = 42
fillins = 0
solver = Normal
Matrix Compiler1: 578 bytes object code size  0.2/0.1/[0.1]
Matrix Compiler2: 1.60 KB object code size  0.1/0.4/[0.1]

