Circuit: * F:\ELECTRONICS\LT_SPICE\WAVE STATEMENT\Draft1.asc

Direct Newton iteration for .op point succeeded.
.step temp=-40°C
.step temp=25°C
.step temp=125°C

Date: Thu Apr 01 10:13:19 2021
Total elapsed time: 0.221 seconds.

tnom = 27
temp = 125
method = modified trap
totiter = 2091
traniter = 2088
tranpoints = 1045
accept = 1045
rejected = 0
matrix size = 9
fillins = 0
solver = Normal
Matrix Compiler1: 206 bytes object code size  0.1/0.1/[0.1]
Matrix Compiler2: 505 bytes object code size  0.1/0.1/[0.1]

