Circuit: * D:\VLSI\NMOS PMOS 2\NMOS\Common Source Amplifier\nmos_vgs_1.1_0.1_1k_vth_0.4_vdh_1.8_cs_amplifier.asc

Warning: Multiple definitions of model "aons66402" Type: Vdmos1
Instance "m1": Length shorter than recommended for a level 1 MOSFET.
Direct Newton iteration for .op point succeeded.

Date: Tue Apr 13 17:04:56 2021
Total elapsed time: 2.170 seconds.

tnom = 27
temp = 27
method = modified trap
totiter = 82033
traniter = 82029
tranpoints = 40016
accept = 24018
rejected = 15998
matrix size = 5
fillins = 0
solver = Normal
Matrix Compiler1: 114 bytes object code size  0.1/0.1/[0.1]
Matrix Compiler2: 301 bytes object code size  0.2/0.2/[0.1]

