Circuit: * F:\ELECTRONICS\LT_SPICE\VOLTAGE_DIVIDER.asc

.OP point found by inspection.

Date: Sat Mar 27 15:27:07 2021
Total elapsed time: 0.099 seconds.

tnom = 27
temp = 27
method = modified trap
totiter = 2114
traniter = 2114
tranpoints = 1058
accept = 1057
rejected = 1
matrix size = 3
fillins = 0
solver = Normal
Matrix Compiler1: 50 bytes object code size  0.1/0.1/[0.1]
Matrix Compiler2: 175 bytes object code size  0.1/0.2/[0.1]

