Circuit: * C:\Users\_\Desktop\pianoo\NMOS COMMON SOURCE\Draft1.asc

Warning: Multiple definitions of model "aons66402" Type: Vdmos1
Vds: Missing value, assumed 0V @ DC
Vgs: Missing value, assumed 0V @ DC
.OP point found by inspection.
.step vgs=0
.step vgs=0.1
.step vgs=0.2
.step vgs=0.3
.step vgs=0.4
.step vgs=0.5
.step vgs=0.6
.step vgs=0.7
.step vgs=0.8
.step vgs=0.9
.step vgs=1

Date: Wed Apr 07 17:57:29 2021
Total elapsed time: 0.493 seconds.

tnom = 27
temp = 27
method = trap
totiter = 281
traniter = 0
tranpoints = 0
accept = 0
rejected = 0
matrix size = 8
fillins = 0
solver = Normal
Matrix Compiler1: 326 bytes object code size  0.6/0.3/[0.2]
Matrix Compiler2: 554 bytes object code size  0.4/0.6/[0.2]

