Circuit: * C:\Users\_\Desktop\Draft2.asc

Vgs: Missing value, assumed 0V @ DC

Date: Wed Apr 07 18:45:51 2021
Total elapsed time: 0.061 seconds.

tnom = 27
temp = 27
method = trap
totiter = 33
traniter = 0
tranpoints = 0
accept = 0
rejected = 0
matrix size = 22
fillins = 10
solver = Normal
Matrix Compiler1: 1.64 KB object code size
Matrix Compiler2: 1.77 KB object code size
