Circuit: * C:\Users\_\Documents\LTspiceXVII\lib\sym\AutoGenerated\Draft1.asc

Direct Newton iteration for .op point succeeded.

Date: Wed Mar 31 11:33:18 2021
Total elapsed time: 0.142 seconds.

tnom = 27
temp = 27
method = modified trap
totiter = 2091
traniter = 2088
tranpoints = 1045
accept = 1045
rejected = 0
matrix size = 11
fillins = 0
solver = Normal
Matrix Compiler1: 270 bytes object code size  0.3/0.2/[0.1]
Matrix Compiler2: 591 bytes object code size  0.3/0.4/[0.2]

