Circuit: * D:\VLSI\Differential Amplifier\Draft3.asc

WARNING: Node N253 is floating.
WARNING: Node N250 is floating.

Instance "m132": Length shorter than recommended for a level 1 MOSFET.
Instance "m131": Length shorter than recommended for a level 1 MOSFET.
Instance "m130": Length shorter than recommended for a level 1 MOSFET.
Instance "m129": Length shorter than recommended for a level 1 MOSFET.
Instance "m128": Length shorter than recommended for a level 1 MOSFET.
Instance "m117": Length shorter than recommended for a level 1 MOSFET.
Instance "m116": Length shorter than recommended for a level 1 MOSFET.
Instance "m115": Length shorter than recommended for a level 1 MOSFET.
Instance "m114": Length shorter than recommended for a level 1 MOSFET.
Instance "m113": Length shorter than recommended for a level 1 MOSFET.
Instance "m112": Length shorter than recommended for a level 1 MOSFET.
Instance "m111": Length shorter than recommended for a level 1 MOSFET.
Instance "m110": Length shorter than recommended for a level 1 MOSFET.
Instance "m109": Length shorter than recommended for a level 1 MOSFET.
Instance "m108": Length shorter than recommended for a level 1 MOSFET.
Instance "m107": Length shorter than recommended for a level 1 MOSFET.
Instance "m106": Length shorter than recommended for a level 1 MOSFET.
Instance "m105": Length shorter than recommended for a level 1 MOSFET.
Instance "m104": Length shorter than recommended for a level 1 MOSFET.
Instance "m103": Length shorter than recommended for a level 1 MOSFET.
Instance "m102": Length shorter than recommended for a level 1 MOSFET.
Instance "m101": Length shorter than recommended for a level 1 MOSFET.
Instance "m100": Length shorter than recommended for a level 1 MOSFET.
Instance "m99": Length shorter than recommended for a level 1 MOSFET.
Instance "m98": Length shorter than recommended for a level 1 MOSFET.
Instance "m97": Length shorter than recommended for a level 1 MOSFET.
Instance "m96": Length shorter than recommended for a level 1 MOSFET.
Instance "m95": Length shorter than recommended for a level 1 MOSFET.
Instance "m89": Length shorter than recommended for a level 1 MOSFET.
Instance "m88": Length shorter than recommended for a level 1 MOSFET.
Instance "m84": Length shorter than recommended for a level 1 MOSFET.
Instance "m81": Length shorter than recommended for a level 1 MOSFET.
Instance "m80": Length shorter than recommended for a level 1 MOSFET.
Instance "m92": Length shorter than recommended for a level 1 MOSFET.
Instance "m91": Length shorter than recommended for a level 1 MOSFET.
Instance "m90": Length shorter than recommended for a level 1 MOSFET.
Instance "m87": Length shorter than recommended for a level 1 MOSFET.
Instance "m86": Length shorter than recommended for a level 1 MOSFET.
Instance "m85": Length shorter than recommended for a level 1 MOSFET.
Instance "m83": Length shorter than recommended for a level 1 MOSFET.
Instance "m82": Length shorter than recommended for a level 1 MOSFET.
Instance "m79": Length shorter than recommended for a level 1 MOSFET.
Instance "m78": Length shorter than recommended for a level 1 MOSFET.
Instance "m76": Length shorter than recommended for a level 1 MOSFET.
Instance "m75": Length shorter than recommended for a level 1 MOSFET.
Instance "m70": Length shorter than recommended for a level 1 MOSFET.
Instance "m69": Length shorter than recommended for a level 1 MOSFET.
Instance "m67": Length shorter than recommended for a level 1 MOSFET.
Instance "m66": Length shorter than recommended for a level 1 MOSFET.
Instance "m56": Length shorter than recommended for a level 1 MOSFET.
Instance "m55": Length shorter than recommended for a level 1 MOSFET.
Instance "m43": Length shorter than recommended for a level 1 MOSFET.
Instance "m42": Length shorter than recommended for a level 1 MOSFET.
Instance "m40": Length shorter than recommended for a level 1 MOSFET.
Instance "m39": Length shorter than recommended for a level 1 MOSFET.
Instance "m32": Length shorter than recommended for a level 1 MOSFET.
Instance "m31": Length shorter than recommended for a level 1 MOSFET.
Instance "m29": Length shorter than recommended for a level 1 MOSFET.
Instance "m28": Length shorter than recommended for a level 1 MOSFET.
Instance "m18": Length shorter than recommended for a level 1 MOSFET.
Instance "m17": Length shorter than recommended for a level 1 MOSFET.
Instance "m61": Length shorter than recommended for a level 1 MOSFET.
Instance "m60": Length shorter than recommended for a level 1 MOSFET.
Instance "m59": Length shorter than recommended for a level 1 MOSFET.
Instance "m58": Length shorter than recommended for a level 1 MOSFET.
Instance "m57": Length shorter than recommended for a level 1 MOSFET.
Instance "m127": Length shorter than recommended for a level 1 MOSFET.
Instance "m126": Length shorter than recommended for a level 1 MOSFET.
Instance "m125": Length shorter than recommended for a level 1 MOSFET.
Instance "m124": Length shorter than recommended for a level 1 MOSFET.
Instance "m123": Length shorter than recommended for a level 1 MOSFET.
Instance "m122": Length shorter than recommended for a level 1 MOSFET.
Instance "m121": Length shorter than recommended for a level 1 MOSFET.
Instance "m120": Length shorter than recommended for a level 1 MOSFET.
Instance "m119": Length shorter than recommended for a level 1 MOSFET.
Instance "m118": Length shorter than recommended for a level 1 MOSFET.
Instance "m94": Length shorter than recommended for a level 1 MOSFET.
Instance "m93": Length shorter than recommended for a level 1 MOSFET.
Instance "m77": Length shorter than recommended for a level 1 MOSFET.
Instance "m74": Length shorter than recommended for a level 1 MOSFET.
Instance "m73": Length shorter than recommended for a level 1 MOSFET.
Instance "m72": Length shorter than recommended for a level 1 MOSFET.
Instance "m71": Length shorter than recommended for a level 1 MOSFET.
Instance "m68": Length shorter than recommended for a level 1 MOSFET.
Instance "m65": Length shorter than recommended for a level 1 MOSFET.
Instance "m64": Length shorter than recommended for a level 1 MOSFET.
Instance "m63": Length shorter than recommended for a level 1 MOSFET.
Instance "m62": Length shorter than recommended for a level 1 MOSFET.
Instance "m54": Length shorter than recommended for a level 1 MOSFET.
Instance "m53": Length shorter than recommended for a level 1 MOSFET.
Instance "m52": Length shorter than recommended for a level 1 MOSFET.
Instance "m51": Length shorter than recommended for a level 1 MOSFET.
Instance "m50": Length shorter than recommended for a level 1 MOSFET.
Instance "m49": Length shorter than recommended for a level 1 MOSFET.
Instance "m48": Length shorter than recommended for a level 1 MOSFET.
Instance "m47": Length shorter than recommended for a level 1 MOSFET.
Instance "m46": Length shorter than recommended for a level 1 MOSFET.
Instance "m45": Length shorter than recommended for a level 1 MOSFET.
Instance "m44": Length shorter than recommended for a level 1 MOSFET.
Instance "m41": Length shorter than recommended for a level 1 MOSFET.
Instance "m38": Length shorter than recommended for a level 1 MOSFET.
Instance "m37": Length shorter than recommended for a level 1 MOSFET.
Instance "m36": Length shorter than recommended for a level 1 MOSFET.
Instance "m35": Length shorter than recommended for a level 1 MOSFET.
Instance "m34": Length shorter than recommended for a level 1 MOSFET.
Instance "m33": Length shorter than recommended for a level 1 MOSFET.
Instance "m30": Length shorter than recommended for a level 1 MOSFET.
Instance "m27": Length shorter than recommended for a level 1 MOSFET.
Instance "m26": Length shorter than recommended for a level 1 MOSFET.
Instance "m25": Length shorter than recommended for a level 1 MOSFET.
Instance "m23": Length shorter than recommended for a level 1 MOSFET.
Instance "m22": Length shorter than recommended for a level 1 MOSFET.
Instance "m24": Length shorter than recommended for a level 1 MOSFET.
Instance "m21": Length shorter than recommended for a level 1 MOSFET.
Instance "m20": Length shorter than recommended for a level 1 MOSFET.
Instance "m19": Length shorter than recommended for a level 1 MOSFET.
Instance "m16": Length shorter than recommended for a level 1 MOSFET.
Instance "m15": Length shorter than recommended for a level 1 MOSFET.
Instance "m14": Length shorter than recommended for a level 1 MOSFET.
Instance "m13": Length shorter than recommended for a level 1 MOSFET.
Instance "m12": Length shorter than recommended for a level 1 MOSFET.
Instance "m11": Length shorter than recommended for a level 1 MOSFET.
Instance "m10": Length shorter than recommended for a level 1 MOSFET.
Instance "m9": Length shorter than recommended for a level 1 MOSFET.
Instance "m7": Length shorter than recommended for a level 1 MOSFET.
Instance "m6": Length shorter than recommended for a level 1 MOSFET.
Instance "m5": Length shorter than recommended for a level 1 MOSFET.
Instance "m4": Length shorter than recommended for a level 1 MOSFET.
Instance "m2": Length shorter than recommended for a level 1 MOSFET.
Instance "m1": Length shorter than recommended for a level 1 MOSFET.
Direct Newton iteration failed to find .op point.  (Use ".option noopiter" to skip.)
Starting Gmin stepping
Gmin = 10
Gmin = 1.07374
Gmin = 0.115292
Gmin = 0.0123794
Gmin = 0.00132923
Gmin = 0.000142725
Gmin = 1.5325e-005
vernier = 0.5
vernier = 0.25
vernier = 0.125
vernier = 0.0625
vernier = 0.03125
vernier = 0.015625
vernier = 0.0078125
vernier = 0.00390625
Gmin = 1.226e-005
vernier = 0.00195313
vernier = 0.000976563
vernier = 0.000488281
Gmin = 0
Gmin stepping failed

Starting source stepping with srcstepmethod=0
Source Step = 3.0303%
Source Step = 33.3333%
Source Step = 63.6364%
Source Step = 79.5455%
Source Step = 80.0189%
Source Step = 80.1373%
Source Step = 80.2557%
Source Step = 80.3741%
Source Step = 80.4924%
vernier = 0.00585938
Source Step = 80.6286%
Source Step = 80.8061%
Source Step = 80.9837%
Source Step = 81.1612%
Source Step = 81.3388%
vernier = 0.00878906
Source Step = 81.5341%
Source Step = 81.8004%
Source Step = 82.0668%
Source Step = 82.3331%
Source Step = 82.5994%
vernier = 0.0131836
Source Step = 82.8791%
Source Step = 83.2786%
Source Step = 83.6781%
Source Step = 84.0776%
Source Step = 84.4771%
Source Step = 84.8766%
vernier = 0.0197754
Source Step = 85.4759%
Source Step = 86.0751%
Source Step = 86.6744%
Source Step = 87.2736%
Source Step = 87.8729%
vernier = 0.0296631
Source Step = 88.7418%
Source Step = 89.6407%
Source Step = 90.5396%
Source Step = 91.4384%
Source Step = 92.3373%
vernier = 0.0444946
Source Step = 93.5957%
Source Step = 94.9441%
Source Step = 95.2643%
Source Step = 95.3486%
Source Step = 95.4328%
Source Step = 95.5171%
Source Step = 95.6014%
vernier = 0.00417137
Source Step = 95.6899%
Source Step = 95.8163%
Source Step = 95.9427%
Source Step = 96.0691%
Source Step = 96.1955%
Source Step = 96.3219%
vernier = 0.00625706
Source Step = 96.5115%
Source Step = 96.7011%
Source Step = 96.8907%
Source Step = 97.0803%
Source Step = 97.2699%
vernier = 0.00938559
Source Step = 97.5449%
Source Step = 97.8293%
Source Step = 98.1137%
Source Step = 98.3981%
Source Step = 98.6825%
vernier = 0.0140784
Source Step = 99.0807%
Source Step = 99.5073%
Source Step = 99.9339%
Source stepping succeeded in finding the operating point.


Date: Sun May 30 15:20:14 2021
Total elapsed time: 3.696 seconds.

tnom = 27
temp = 27
method = modified trap
totiter = 9042
traniter = 4140
tranpoints = 2071
accept = 1255
rejected = 816
matrix size = 428
fillins = 24
solver = Normal
Thread vector: 103.1/17.4[8] 51.0/8.6[8] 15.1/6.7[8] 2.3/4.4[1]  2592/500
Matrix Compiler1: 18.85 KB object code size  16.1/6.2/[2.7]
Matrix Compiler2: 33.25 KB object code size  19.7/17.9/[3.8]

