Circuit: * F:\ELECTRONICS\LT_SPICE\VOLTAGE_DIVIDER\Draft1.asc


Date: Mon Mar 29 14:10:01 2021
Total elapsed time: 0.039 seconds.

tnom = 27
temp = 27
method = trap
totiter = 0
traniter = 0
tranpoints = 0
accept = 0
rejected = 0
matrix size = 5
fillins = 0
solver = Normal

