Circuit: * F:\ELECTRONICS\LT_SPICE\LOW_PASS_FILTER\Draft1.asc


Date: Mon Mar 29 11:18:26 2021
Total elapsed time: 0.022 seconds.

tnom = 27
temp = 27
method = trap
totiter = 0
traniter = 0
tranpoints = 0
accept = 0
rejected = 0
matrix size = 3
fillins = 0
solver = Normal

