Circuit: * C:\Users\_\Desktop\pianoo\Draft1.asc

Warning: Multiple definitions of model "aons66402" Type: Vdmos1
Direct Newton iteration for .op point succeeded.

Date: Tue Apr 06 21:03:03 2021
Total elapsed time: 0.049 seconds.

tnom = 27
temp = 27
method = modified trap
totiter = 2177
traniter = 2165
tranpoints = 1083
accept = 1055
rejected = 28
matrix size = 9
fillins = 1
solver = Normal
Matrix Compiler1: 484 bytes object code size  0.1/0.1/[0.1]
Matrix Compiler2: 703 bytes object code size  0.1/0.1/[0.1]

