Circuit: * C:\Users\_\Desktop\pianoo\NMOS COMMON SOURCE\Draft3.asc

Vds: Missing value, assumed 0V @ DC
Vgs: Missing value, assumed 0V @ DC
.dc sweep increment has wrong sign -- fixing...
.step vgs=0.2
.step vgs=0.1
.step vgs=0
.step vgs=-0.1
.step vgs=-0.2
.step vgs=-0.3
.step vgs=-0.4
.step vgs=-0.5
.step vgs=-0.6
.step vgs=-0.7
.step vgs=-0.8
.step vgs=-0.9
.step vgs=-1

Date: Wed Apr 07 17:59:16 2021
Total elapsed time: 0.210 seconds.

tnom = 27
temp = 27
method = trap
totiter = 479
traniter = 0
tranpoints = 0
accept = 0
rejected = 0
matrix size = 22
fillins = 10
solver = Normal
Matrix Compiler1: 1.64 KB object code size  2.1/1.3/[0.3]
Matrix Compiler2: 1.77 KB object code size  1.0/1.5/[0.3]

