Circuit: * C:\Users\_\Documents\LTspiceXVII\lib\sym\AutoGenerated\Draft1.asc

Direct Newton iteration for .op point succeeded.
N-Period=100
Fourier components of V(reference)
DC component:6.90927e-017

Harmonic	Frequency	 Fourier 	Normalized	 Phase  	Normalized
 Number 	  [Hz]   	Component	 Component	[degree]	Phase [deg]
    1   	1.000e+03	1.000e+00	1.000e+00	   -0.00°	    0.00°
    2   	2.000e+03	6.994e-15	6.994e-15	   -0.14°	   -0.14°
    3   	3.000e+03	1.075e-14	1.075e-14	   -0.51°	   -0.51°
    4   	4.000e+03	1.418e-14	1.418e-14	   -0.17°	   -0.17°
    5   	5.000e+03	1.774e-14	1.774e-14	   -0.16°	   -0.16°
    6   	6.000e+03	2.135e-14	2.135e-14	   -0.15°	   -0.15°
    7   	7.000e+03	2.487e-14	2.487e-14	   -0.17°	   -0.17°
    8   	8.000e+03	2.841e-14	2.841e-14	   -0.23°	   -0.23°
    9   	9.000e+03	3.203e-14	3.203e-14	   -0.10°	   -0.10°
   10   	1.000e+04	3.553e-14	3.553e-14	   -0.17°	   -0.17°
Total Harmonic Distortion: 0.000000%(0.000975%)

N-Period=100
Fourier components of V(out)
DC component:8.01207

Harmonic	Frequency	 Fourier 	Normalized	 Phase  	Normalized
 Number 	  [Hz]   	Component	 Component	[degree]	Phase [deg]
    1   	1.000e+03	9.119e-01	1.000e+00	  179.83°	    0.00°
    2   	2.000e+03	5.915e-03	6.486e-03	   89.70°	  -90.14°
    3   	3.000e+03	1.830e-03	2.006e-03	  179.57°	   -0.26°
    4   	4.000e+03	2.770e-04	3.038e-04	  -90.65°	 -270.48°
    5   	5.000e+03	4.148e-05	4.549e-05	   -0.85°	 -180.69°
    6   	6.000e+03	6.149e-06	6.743e-06	   88.99°	  -90.84°
    7   	7.000e+03	8.979e-07	9.847e-07	 -179.60°	 -359.43°
    8   	8.000e+03	1.500e-07	1.645e-07	  -91.40°	 -271.24°
    9   	9.000e+03	2.987e-08	3.276e-08	  -58.82°	 -238.66°
   10   	1.000e+04	2.329e-08	2.554e-08	  -91.65°	 -271.48°
Total Harmonic Distortion: 0.679610%(0.679611%)



Date: Wed Mar 31 10:14:46 2021
Total elapsed time: 24.287 seconds.

tnom = 27
temp = 27
method = modified trap
totiter = 2000040
traniter = 2000034
tranpoints = 1000018
accept = 1000018
rejected = 0
matrix size = 9
fillins = 0
solver = Normal
Matrix Compiler1: 474 bytes object code size  0.3/0.2/[0.1]
Matrix Compiler2: off  [0.2]/0.2/0.2

