Circuit: * F:\ELECTRONICS\LT_SPICE\WAVE STATEMENT\Draft2.asc

WARNING: Less than two connections to node OUT1.  This node is used by V2.
Direct Newton iteration for .op point succeeded.

Date: Thu Apr 01 11:36:53 2021
Total elapsed time: 6.117 seconds.

tnom = 27
temp = 27
method = modified trap
totiter = 523650
traniter = 523640
tranpoints = 165808
accept = 121476
rejected = 44332
matrix size = 77
fillins = 72
solver = Normal
Thread vector: 5.6/4.2[2] 2.3/2.0[2] 0.7/1.0[1] 0.3/1.2[1]  2592/500
Matrix Compiler1: 9.42 KB object code size  1.6/1.0/[0.5]
Matrix Compiler2: 8.14 KB object code size  0.7/0.9/[0.5]

